Circuit: *** SPICE deck for cell sim_Inverter_4{sch} from library Inverter

Ignoring BSIM parameter HDIF
Ignoring BSIM parameter ACM
Ignoring BSIM parameter XL
Ignoring BSIM parameter XW
Ignoring BSIM parameter HDIF
Ignoring BSIM parameter ACM
Ignoring BSIM parameter XL
Ignoring BSIM parameter XW
Warning: Pd = 0 is less than W.
Warning: Ps = 0 is less than W.
Warning: Pd = 0 is less than W.
Warning: Ps = 0 is less than W.
Direct Newton iteration for .op point succeeded.

tdpr=2.7771e-010 FROM 7.9995e-009 TO 8.27721e-009
tdpf=1.89791e-010 FROM 1.6665e-009 TO 1.85629e-009
trise=2.62523e-010 FROM 8.13323e-009 TO 8.39575e-009
tfall=2.71356e-010 FROM 1.69544e-009 TO 1.96679e-009


Date: Fri Apr 17 05:30:14 2020
Total elapsed time: 0.155 seconds.

tnom = 27
temp = 27
method = modified trap
totiter = 3292
traniter = 3285
tranpoints = 1456
accept = 1306
rejected = 150
matrix size = 5
fillins = 0
solver = Normal
Matrix Compiler1: 204 bytes object code size  0.1/0.1/[0.0]
Matrix Compiler2: 311 bytes object code size  0.1/0.1/[0.1]


