Circuit: *** SPICE deck for cell sim_Inverter_1{sch} from library Inverter

Ignoring BSIM parameter HDIF
Ignoring BSIM parameter ACM
Ignoring BSIM parameter XL
Ignoring BSIM parameter XW
Ignoring BSIM parameter HDIF
Ignoring BSIM parameter ACM
Ignoring BSIM parameter XL
Ignoring BSIM parameter XW
Warning: Pd = 0 is less than W.
Warning: Ps = 0 is less than W.
Warning: Pd = 0 is less than W.
Warning: Ps = 0 is less than W.
Direct Newton iteration for .op point succeeded.

tdpr=5.41569e-010 FROM 7.9995e-009 TO 8.54107e-009
tdpf=4.62183e-010 FROM 1.6665e-009 TO 2.12868e-009
trise=4.96439e-010 FROM 8.29046e-009 TO 8.7869e-009
tfall=4.78636e-010 FROM 1.86651e-009 TO 2.34515e-009


Date: Fri Apr 17 05:06:40 2020
Total elapsed time: 0.431 seconds.

tnom = 27
temp = 27
method = modified trap
totiter = 2795
traniter = 2787
tranpoints = 1291
accept = 1206
rejected = 85
matrix size = 5
fillins = 0
solver = Normal
Matrix Compiler1: 204 bytes object code size  0.1/0.1/[0.0]
Matrix Compiler2: 311 bytes object code size  0.1/0.1/[0.1]


