Circuit: *** SPICE deck for cell Calc_Cload{sch} from library Inverter

Ignoring BSIM parameter HDIF
Ignoring BSIM parameter ACM
Ignoring BSIM parameter XL
Ignoring BSIM parameter XW
Ignoring BSIM parameter HDIF
Ignoring BSIM parameter ACM
Ignoring BSIM parameter XL
Ignoring BSIM parameter XW
Warning: Pd = 0 is less than W.
Warning: Ps = 0 is less than W.
Warning: Pd = 0 is less than W.
Warning: Ps = 0 is less than W.
Direct Newton iteration for .op point succeeded.
Heightened Def Con from 1.00066e-009 to 1.00066e-009
Heightened Def Con from 1.00121e-009 to 1.05004e-009

timeconstant=4.8512e-011 FROM 1e-009 TO 1.04851e-009
falltime=4.18684e-009 FROM 1.8582e-009 TO 6.04504e-009


Date: Sun Apr 19 04:00:53 2020
Total elapsed time: 0.400 seconds.

tnom = 27
temp = 27
method = modified trap
totiter = 2951
traniter = 2944
tranpoints = 1208
accept = 1151
rejected = 59
matrix size = 6
fillins = 0
solver = Normal
Matrix Compiler1: 182 bytes object code size  0.2/0.1/[0.1]
Matrix Compiler2: off  [0.1]/0.1/0.1


