Circuit: *** SPICE deck for cell sim_Three_Input_NAND_2{sch} from library Three_Input_NAND

Ignoring BSIM parameter HDIF
Ignoring BSIM parameter ACM
Ignoring BSIM parameter XL
Ignoring BSIM parameter XW
Ignoring BSIM parameter HDIF
Ignoring BSIM parameter ACM
Ignoring BSIM parameter XL
Ignoring BSIM parameter XW
Warning: Pd = 0 is less than W.
Warning: Ps = 0 is less than W.
Warning: Pd = 0 is less than W.
Warning: Ps = 0 is less than W.
Direct Newton iteration for .op point succeeded.

tdpr=3.8396e-010 FROM 7.9995e-009 TO 8.38346e-009
tdpf=1.96105e-010 FROM 1.6665e-009 TO 1.8626e-009
trise=3.26846e-010 FROM 8.19745e-009 TO 8.5243e-009
tfall=3.33806e-010 FROM 1.68425e-009 TO 2.01805e-009


Date: Fri Apr 17 01:47:26 2020
Total elapsed time: 0.160 seconds.

tnom = 27
temp = 27
method = modified trap
totiter = 4034
traniter = 4012
tranpoints = 1514
accept = 1323
rejected = 191
matrix size = 7
fillins = 0
solver = Normal
Matrix Compiler1: 322 bytes object code size  0.1/0.1/[0.1]
Matrix Compiler2: 611 bytes object code size  0.1/0.1/[0.1]


