Circuit: *** SPICE deck for cell sim_Three_Input_NAND_4{sch} from library Three_Input_NAND

Ignoring BSIM parameter HDIF
Ignoring BSIM parameter ACM
Ignoring BSIM parameter XL
Ignoring BSIM parameter XW
Ignoring BSIM parameter HDIF
Ignoring BSIM parameter ACM
Ignoring BSIM parameter XL
Ignoring BSIM parameter XW
Warning: Pd = 0 is less than W.
Warning: Ps = 0 is less than W.
Warning: Pd = 0 is less than W.
Warning: Ps = 0 is less than W.
Direct Newton iteration for .op point succeeded.

tdpr=3.28438e-010 FROM 7.9995e-009 TO 8.32794e-009
tdpf=1.43159e-010 FROM 1.6665e-009 TO 1.80966e-009
trise=2.7687e-010 FROM 8.16241e-009 TO 8.43928e-009
tfall=2.8956e-010 FROM 1.65061e-009 TO 1.94017e-009


Date: Fri Apr 17 02:02:55 2020
Total elapsed time: 0.164 seconds.

tnom = 27
temp = 27
method = modified trap
totiter = 4431
traniter = 4397
tranpoints = 1684
accept = 1457
rejected = 227
matrix size = 7
fillins = 0
solver = Normal
Matrix Compiler1: 322 bytes object code size  0.1/0.1/[0.0]
Matrix Compiler2: off  [0.1]/0.1/0.1


