Circuit: *** SPICE deck for cell Three_Input_NAND_2{sch} from library Three_Input_NAND

