Circuit: *** SPICE deck for cell tristate_inv_4_folded_sim{lay} from library Tristate_Inv

Ignoring BSIM parameter HDIF
Ignoring BSIM parameter ACM
Ignoring BSIM parameter XL
Ignoring BSIM parameter XW
Ignoring BSIM parameter HDIF
Ignoring BSIM parameter ACM
Ignoring BSIM parameter XL
Ignoring BSIM parameter XW
WARNING: Node OUT is floating.

WARNING: Less than two connections to node OUT.  This node is used by CLOAD.
Direct Newton iteration for .op point succeeded.


Measurement "tdpr" FAIL'ed

Measurement "tdpf" FAIL'ed

Measurement "trise" FAIL'ed

Measurement "tfall" FAIL'ed


Date: Sun Apr 19 04:15:10 2020
Total elapsed time: 0.403 seconds.

tnom = 27
temp = 27
method = modified trap
totiter = 5933
traniter = 5910
tranpoints = 2478
accept = 2112
rejected = 366
matrix size = 8
fillins = 0
solver = Normal
Thread vector: 91.1/29.1[3] 7.6/5.6[3] 3.0/5.3[1] 0.2/2.9[1]  2592/500
Matrix Compiler1: 246 bytes object code size  0.3/0.1/[0.1]
Matrix Compiler2: 600 bytes object code size  0.2/0.4/[0.1]


