Circuit: *** SPICE deck for cell tristate_inv_1_sim{sch} from library Tristate_Inv

Ignoring BSIM parameter HDIF
Ignoring BSIM parameter ACM
Ignoring BSIM parameter XL
Ignoring BSIM parameter XW
Ignoring BSIM parameter HDIF
Ignoring BSIM parameter ACM
Ignoring BSIM parameter XL
Ignoring BSIM parameter XW
Warning: Pd = 0 is less than W.
Warning: Ps = 0 is less than W.
Warning: Pd = 0 is less than W.
Warning: Ps = 0 is less than W.
Direct Newton iteration for .op point succeeded.

tdpr=9.14442e-011 FROM 6.0015e-009 TO 6.09294e-009
tdpf=9.09314e-011 FROM 1.0005e-009 TO 1.09143e-009
trise=9.0386e-011 FROM 6.05779e-009 TO 6.14817e-009
tfall=9.38406e-011 FROM 1.04857e-009 TO 1.14242e-009


Date: Sun Apr 19 04:14:41 2020
Total elapsed time: 0.188 seconds.

tnom = 27
temp = 27
method = modified trap
totiter = 7249
traniter = 7224
tranpoints = 2752
accept = 2317
rejected = 435
matrix size = 7
fillins = 0
solver = Normal
Matrix Compiler1: 250 bytes object code size  0.0/0.1/[0.0]
Matrix Compiler2:      46 opcodes  0.1/[0.1]/0.1


