Circuit: *** SPICE deck for cell tristate_inv_4_sim{sch} from library Tristate_Inv

Ignoring BSIM parameter HDIF
Ignoring BSIM parameter ACM
Ignoring BSIM parameter XL
Ignoring BSIM parameter XW
Ignoring BSIM parameter HDIF
Ignoring BSIM parameter ACM
Ignoring BSIM parameter XL
Ignoring BSIM parameter XW
Warning: Pd = 0 is less than W.
Warning: Ps = 0 is less than W.
Warning: Pd = 0 is less than W.
Warning: Ps = 0 is less than W.
Direct Newton iteration for .op point succeeded.

tdpr=6.96576e-011 FROM 6.0015e-009 TO 6.07116e-009
tdpf=7.09808e-011 FROM 1.0005e-009 TO 1.07148e-009
trise=5.92197e-011 FROM 6.04972e-009 TO 6.10894e-009
tfall=6.48127e-011 FROM 1.0412e-009 TO 1.10601e-009


Date: Sun Apr 19 04:15:21 2020
Total elapsed time: 0.190 seconds.

tnom = 27
temp = 27
method = modified trap
totiter = 7507
traniter = 7481
tranpoints = 3039
accept = 2531
rejected = 508
matrix size = 7
fillins = 0
solver = Normal
Matrix Compiler1: 250 bytes object code size  0.2/0.2/[0.1]
Matrix Compiler2: 595 bytes object code size  0.1/0.2/[0.1]


