Circuit: *** SPICE deck for cell sim_Three_Input_NOR_4{sch} from library Three_Input_NOR

Ignoring BSIM parameter HDIF
Ignoring BSIM parameter ACM
Ignoring BSIM parameter XL
Ignoring BSIM parameter XW
Ignoring BSIM parameter HDIF
Ignoring BSIM parameter ACM
Ignoring BSIM parameter XL
Ignoring BSIM parameter XW
Warning: Pd = 0 is less than W.
Warning: Ps = 0 is less than W.
Warning: Pd = 0 is less than W.
Warning: Ps = 0 is less than W.
Direct Newton iteration for .op point succeeded.

tdpr=2.12753e-010 FROM 7.9995e-009 TO 8.21225e-009
tdpf=3.40859e-010 FROM 1.6665e-009 TO 2.00736e-009
trise=3.21972e-010 FROM 8.05872e-009 TO 8.38069e-009
tfall=3.016e-010 FROM 1.81777e-009 TO 2.11937e-009


Date: Fri Apr 17 04:03:48 2020
Total elapsed time: 0.228 seconds.

tnom = 27
temp = 27
method = modified trap
totiter = 4298
traniter = 4289
tranpoints = 1674
accept = 1438
rejected = 236
matrix size = 7
fillins = 0
solver = Normal
Matrix Compiler1: 268 bytes object code size  0.3/0.3/[0.1]
Matrix Compiler2: 629 bytes object code size  0.2/0.3/[0.1]


