Circuit: *** SPICE deck for cell sim_Three_Input_NOR_1{sch} from library Three_Input_NOR

Ignoring BSIM parameter HDIF
Ignoring BSIM parameter ACM
Ignoring BSIM parameter XL
Ignoring BSIM parameter XW
Ignoring BSIM parameter HDIF
Ignoring BSIM parameter ACM
Ignoring BSIM parameter XL
Ignoring BSIM parameter XW
Warning: Pd = 0 is less than W.
Warning: Ps = 0 is less than W.
Warning: Pd = 0 is less than W.
Warning: Ps = 0 is less than W.
Direct Newton iteration for .op point succeeded.

tdpr=4.46816e-010 FROM 7.9995e-009 TO 8.44632e-009
tdpf=5.85078e-010 FROM 1.6665e-009 TO 2.25158e-009
trise=5.52708e-010 FROM 8.19321e-009 TO 8.74591e-009
tfall=5.14105e-010 FROM 1.97243e-009 TO 2.48654e-009


Date: Fri Apr 17 03:04:15 2020
Total elapsed time: 0.138 seconds.

tnom = 27
temp = 27
method = modified trap
totiter = 3417
traniter = 3407
tranpoints = 1418
accept = 1275
rejected = 143
matrix size = 7
fillins = 0
solver = Normal
Matrix Compiler1: 268 bytes object code size  0.2/0.1/[0.1]
Matrix Compiler2: off  [0.1]/0.2/0.2


