Circuit: *** SPICE deck for cell Three_Input_NOR_1{sch} from library Three_Input_NOR

